data_
_chemical_name_mineral ?Er2Ti2O7_Pyrochlore?
_cell_length_a 10.0791(1)
_cell_length_b 10.0791(1)
_cell_length_c 10.0791(1)
_cell_angle_alpha 90
_cell_angle_beta 90
_cell_angle_gamma 90
_cell_volume 1023.930(10)
_symmetry_space_group_name_H-M Fd-3m
loop_
	_symmetry_equiv_pos_as_xyz
	 'x, y, z '
	 '-x, -z, -y '
	 '-x+1/4, -z-1/4, y+1/2 '
	 '-x+1/4, y+1/2, -z-1/4 '
	 '-x+1/2, z-1/4, y+1/4 '
	 '-x+1/2, y+1/4, z-1/4 '
	 '-x-1/4, -y+1/4, z+1/2 '
	 '-x-1/4, z+1/2, -y+1/4 '
	 '-y, -x, -z '
	 '-y, -z, -x '
	 '-y+1/4, -x-1/4, z+1/2 '
	 '-y+1/4, z+1/2, -x-1/4 '
	 '-y+1/2, z+1/4, x-1/4 '
	 '-y+1/2, x-1/4, z+1/4 '
	 '-y-1/4, -z+1/4, x+1/2 '
	 '-y-1/4, x+1/2, -z+1/4 '
	 '-z, -x, -y '
	 '-z, -y, -x '
	 '-z+1/4, -y-1/4, x+1/2 '
	 '-z+1/4, x+1/2, -y-1/4 '
	 '-z+1/2, y-1/4, x+1/4 '
	 '-z+1/2, x+1/4, y-1/4 '
	 '-z-1/4, -x+1/4, y+1/2 '
	 '-z-1/4, y+1/2, -x+1/4 '
	 'z, y, x '
	 'z, x, y '
	 'z+1/4, -y+1/2, x-1/4 '
	 'z+1/4, x-1/4, -y+1/2 '
	 'z+1/2, -x-1/4, -y+1/4 '
	 'z+1/2, -y+1/4, -x-1/4 '
	 'z-1/4, -x+1/2, y+1/4 '
	 'z-1/4, y+1/4, -x+1/2 '
	 'y, z, x '
	 'y, x, z '
	 'y+1/4, -x+1/2, z-1/4 '
	 'y+1/4, z-1/4, -x+1/2 '
	 'y+1/2, -x+1/4, -z-1/4 '
	 'y+1/2, -z-1/4, -x+1/4 '
	 'y-1/4, -z+1/2, x+1/4 '
	 'y-1/4, x+1/4, -z+1/2 '
	 'x, z, y '
	 '-x, -y, -z '
	 'x+1/4, -z+1/2, y-1/4 '
	 'x+1/4, y-1/4, -z+1/2 '
	 'x+1/2, -y-1/4, -z+1/4 '
	 'x+1/2, -z+1/4, -y-1/4 '
	 'x-1/4, -y+1/2, z+1/4 '
	 'x-1/4, z+1/4, -y+1/2 '
	 'x+1/2, y+1/2, z '
	 '-x+1/2, -z+1/2, -y '
	 '-x-1/4, -z+1/4, y+1/2 '
	 '-x-1/4, y, -z-1/4 '
	 '-x, z+1/4, y+1/4 '
	 '-x, y-1/4, z-1/4 '
	 '-x+1/4, -y-1/4, z+1/2 '
	 '-x+1/4, z, -y+1/4 '
	 '-y+1/2, -x+1/2, -z '
	 '-y+1/2, -z+1/2, -x '
	 '-y-1/4, -x+1/4, z+1/2 '
	 '-y-1/4, z, -x-1/4 '
	 '-y, z-1/4, x-1/4 '
	 '-y, x+1/4, z+1/4 '
	 '-y+1/4, -z-1/4, x+1/2 '
	 '-y+1/4, x, -z+1/4 '
	 '-z+1/2, -x+1/2, -y '
	 '-z+1/2, -y+1/2, -x '
	 '-z-1/4, -y+1/4, x+1/2 '
	 '-z-1/4, x, -y-1/4 '
	 '-z, y+1/4, x+1/4 '
	 '-z, x-1/4, y-1/4 '
	 '-z+1/4, -x-1/4, y+1/2 '
	 '-z+1/4, y, -x+1/4 '
	 'z+1/2, y+1/2, x '
	 'z+1/2, x+1/2, y '
	 'z-1/4, -y, x-1/4 '
	 'z-1/4, x+1/4, -y+1/2 '
	 'z, -x+1/4, -y+1/4 '
	 'z, -y-1/4, -x-1/4 '
	 'z+1/4, -x, y+1/4 '
	 'z+1/4, y-1/4, -x+1/2 '
	 'y+1/2, z+1/2, x '
	 'y+1/2, x+1/2, z '
	 'y-1/4, -x, z-1/4 '
	 'y-1/4, z+1/4, -x+1/2 '
	 'y, -x-1/4, -z-1/4 '
	 'y, -z+1/4, -x+1/4 '
	 'y+1/4, -z, x+1/4 '
	 'y+1/4, x-1/4, -z+1/2 '
	 'x+1/2, z+1/2, y '
	 '-x+1/2, -y+1/2, -z '
	 'x-1/4, -z, y-1/4 '
	 'x-1/4, y+1/4, -z+1/2 '
	 'x, -y+1/4, -z+1/4 '
	 'x, -z-1/4, -y-1/4 '
	 'x+1/4, -y, z+1/4 '
	 'x+1/4, z-1/4, -y+1/2 '
	 'x+1/2, y, z+1/2 '
	 '-x+1/2, -z, -y+1/2 '
	 '-x-1/4, -z-1/4, y '
	 '-x-1/4, y+1/2, -z+1/4 '
	 '-x, z-1/4, y-1/4 '
	 '-x, y+1/4, z+1/4 '
	 '-x+1/4, -y+1/4, z '
	 '-x+1/4, z+1/2, -y-1/4 '
	 '-y+1/2, -x, -z+1/2 '
	 '-y+1/2, -z, -x+1/2 '
	 '-y-1/4, -x-1/4, z '
	 '-y-1/4, z+1/2, -x+1/4 '
	 '-y, z+1/4, x+1/4 '
	 '-y, x-1/4, z-1/4 '
	 '-y+1/4, -z+1/4, x '
	 '-y+1/4, x+1/2, -z-1/4 '
	 '-z+1/2, -x, -y+1/2 '
	 '-z+1/2, -y, -x+1/2 '
	 '-z-1/4, -y-1/4, x '
	 '-z-1/4, x+1/2, -y+1/4 '
	 '-z, y-1/4, x-1/4 '
	 '-z, x+1/4, y+1/4 '
	 '-z+1/4, -x+1/4, y '
	 '-z+1/4, y+1/2, -x-1/4 '
	 'z+1/2, y, x+1/2 '
	 'z+1/2, x, y+1/2 '
	 'z-1/4, -y+1/2, x+1/4 '
	 'z-1/4, x-1/4, -y '
	 'z, -x-1/4, -y-1/4 '
	 'z, -y+1/4, -x+1/4 '
	 'z+1/4, -x+1/2, y-1/4 '
	 'z+1/4, y+1/4, -x '
	 'y+1/2, z, x+1/2 '
	 'y+1/2, x, z+1/2 '
	 'y-1/4, -x+1/2, z+1/4 '
	 'y-1/4, z-1/4, -x '
	 'y, -x+1/4, -z+1/4 '
	 'y, -z-1/4, -x-1/4 '
	 'y+1/4, -z+1/2, x-1/4 '
	 'y+1/4, x+1/4, -z '
	 'x+1/2, z, y+1/2 '
	 '-x+1/2, -y, -z+1/2 '
	 'x-1/4, -z+1/2, y+1/4 '
	 'x-1/4, y-1/4, -z '
	 'x, -y-1/4, -z-1/4 '
	 'x, -z+1/4, -y+1/4 '
	 'x+1/4, -y+1/2, z-1/4 '
	 'x+1/4, z+1/4, -y '
	 'x, y+1/2, z+1/2 '
	 '-x, -z+1/2, -y+1/2 '
	 '-x+1/4, -z+1/4, y '
	 '-x+1/4, y, -z+1/4 '
	 '-x+1/2, z+1/4, y-1/4 '
	 '-x+1/2, y-1/4, z+1/4 '
	 '-x-1/4, -y-1/4, z '
	 '-x-1/4, z, -y-1/4 '
	 '-y, -x+1/2, -z+1/2 '
	 '-y, -z+1/2, -x+1/2 '
	 '-y+1/4, -x+1/4, z '
	 '-y+1/4, z, -x+1/4 '
	 '-y+1/2, z-1/4, x+1/4 '
	 '-y+1/2, x+1/4, z-1/4 '
	 '-y-1/4, -z-1/4, x '
	 '-y-1/4, x, -z-1/4 '
	 '-z, -x+1/2, -y+1/2 '
	 '-z, -y+1/2, -x+1/2 '
	 '-z+1/4, -y+1/4, x '
	 '-z+1/4, x, -y+1/4 '
	 '-z+1/2, y+1/4, x-1/4 '
	 '-z+1/2, x-1/4, y+1/4 '
	 '-z-1/4, -x-1/4, y '
	 '-z-1/4, y, -x-1/4 '
	 'z, y+1/2, x+1/2 '
	 'z, x+1/2, y+1/2 '
	 'z+1/4, -y, x+1/4 '
	 'z+1/4, x+1/4, -y '
	 'z+1/2, -x+1/4, -y-1/4 '
	 'z+1/2, -y-1/4, -x+1/4 '
	 'z-1/4, -x, y-1/4 '
	 'z-1/4, y-1/4, -x '
	 'y, z+1/2, x+1/2 '
	 'y, x+1/2, z+1/2 '
	 'y+1/4, -x, z+1/4 '
	 'y+1/4, z+1/4, -x '
	 'y+1/2, -x-1/4, -z+1/4 '
	 'y+1/2, -z+1/4, -x-1/4 '
	 'y-1/4, -z, x-1/4 '
	 'y-1/4, x-1/4, -z '
	 'x, z+1/2, y+1/2 '
	 '-x, -y+1/2, -z+1/2 '
	 'x+1/4, -z, y+1/4 '
	 'x+1/4, y+1/4, -z '
	 'x+1/2, -y+1/4, -z-1/4 '
	 'x+1/2, -z-1/4, -y+1/4 '
	 'x-1/4, -y, z-1/4 '
	 'x-1/4, z-1/4, -y '
loop_
_atom_site_label
_atom_site_type_symbol
_atom_site_symmetry_multiplicity
_atom_site_fract_x
_atom_site_fract_y
_atom_site_fract_z
_atom_site_occupancy
_atom_site_B_iso_or_equiv
Er16d Er  16 0.5 0.5 0.5 1 0.4391(18)
Ti16c Ti  16 0 0 0 1 0.2559(16)
O48f O  48 0.33197(1) 0.125 0.125 1 0.5279(16)
O28b O   8 0.375 0.375 0.375 1 0.295(3)