
data_
_chemical_name_mineral ?Er2Zr2O7 rhombohedral R-3?
_cell_length_a 9.65506(14)
_cell_length_b 9.65506(14)
_cell_length_c 8.95814(17)
_cell_angle_alpha 90
_cell_angle_beta 90
_cell_angle_gamma 120
_cell_volume 723.20(2)
_symmetry_space_group_name_H-M R-3
loop_
	_symmetry_equiv_pos_as_xyz
	 'x, y, z '
	 '-x+y, -x, z '
	 '-y, x-y, z '
	 'y, -x+y, -z '
	 'x-y, x, -z '
	 '-x, -y, -z '
	 'x-1/3, y+1/3, z+1/3 '
	 '-x+y-1/3, -x+1/3, z+1/3 '
	 '-y-1/3, x-y+1/3, z+1/3 '
	 'y-1/3, -x+y+1/3, -z+1/3 '
	 'x-y-1/3, x+1/3, -z+1/3 '
	 '-x-1/3, -y+1/3, -z+1/3 '
	 'x+1/3, y-1/3, z-1/3 '
	 '-x+y+1/3, -x-1/3, z-1/3 '
	 '-y+1/3, x-y-1/3, z-1/3 '
	 'y+1/3, -x+y-1/3, -z-1/3 '
	 'x-y+1/3, x-1/3, -z-1/3 '
	 '-x+1/3, -y-1/3, -z-1/3 '
loop_
_atom_site_label
_atom_site_type_symbol
_atom_site_symmetry_multiplicity
_atom_site_fract_x
_atom_site_fract_y
_atom_site_fract_z
_atom_site_occupancy
_atom_site_B_iso_or_equiv
Zr3a Zr   3 0 0 0 1 0
Er18f Er  18 0.25449(5) 0.21060(6) 0.34903(6) 0.6 0
Zr18f Zr  18 0.25449(5) 0.21060(6) 0.34903(6) 0.4 0
O18f1 O  18 0.03323(12) 0.21746(11) 0.39674(11) 0.989(3) 0
O18f2 O  18 0.20950(13) 0.17681(14) 0.11207(13) 1.000(3) 0
O6c O   6 0 0 0.284(2) 0.159(11) 0